56
New structure
Li    0.000000    0.000000    0.000000
Li    4.218450    0.000000    4.218450
Li    0.000000    4.218450    4.218450
Li    4.218450    4.218450    0.000000
Li    2.109225    6.327675    6.327675
Li    2.109225    2.109225    2.109225
Li    6.327675    6.327675    2.109225
Li    6.327675    2.109225    6.327675
Ti    1.054613    3.119966    7.426160
Ti    3.163838    5.316935    3.207710
Ti    7.382288    7.338416    5.229190
Ti    5.273063    1.098484    1.010740
Ti    7.426160    1.054613    3.119966
Ti    3.207710    3.163838    5.316935
Ti    5.229190    7.382288    7.338416
Ti    1.010740    5.273063    1.098484
Ti    3.119966    7.426160    1.054613
Ti    5.316935    3.207710    3.163837
Ti    7.338416    5.229190    7.382288
Ti    1.098484    1.010740    5.273063
Mn    5.273063    5.273063    5.273063
Mn    7.382288    3.163837    1.054613
Mn    3.163838    1.054613    7.382288
Mn    1.054613    7.382288    3.163837
 O    3.283642    3.283642    3.283642
 O    0.934808    5.153259    7.502091
 O    5.153259    7.502091    0.934808
 O    7.502091    0.934808    5.153259
 O    5.392866    1.174416    3.044034
 O    7.262484    7.262484    7.262484
 O    1.174416    3.044034    5.392866
 O    3.044034    5.392866    1.174416
 O    0.870688    1.068112    3.297984
 O    3.347762    7.368788    7.516435
 O    7.566212    5.286562    0.920466
 O    5.089139    3.150339    5.138916
 O    3.297984    0.870688    1.068112
 O    7.516435    3.347762    7.368788
 O    0.920466    7.566212    5.286562
 O    5.138916    5.089139    3.150339
 O    1.068112    3.297984    0.870688
 O    7.368788    7.516435    3.347762
 O    5.286562    0.920466    7.566212
 O    3.150339    5.138916    5.089139
 O    3.177336    7.198363    3.029691
 O    1.041113    1.238537    7.248141
 O    7.395787    5.456987    5.407209
 O    5.259563    2.979913    1.188759
 O    2.979913    1.188759    5.259563
 O    5.456987    5.407209    7.395787
 O    1.238537    7.248141    1.041113
 O    7.198363    3.029691    3.177336
 O    5.407209    7.395787    5.456987
 O    1.188759    5.259563    2.979913
 O    3.029691    3.177336    7.198363
 O    7.248141    1.041113    1.238537
